Circuit: * D:\circuits\projects\Eload\Op-AmpDrivingNMos.asc

Early termination of direct N-R iteration.
Direct Newton iteration failed to find .op point.  (Use ".option noopiter" to skip.)
Starting Gmin stepping
Gmin = 10
vernier = 0.5
vernier = 0.25
vernier = 0.125
vernier = 0.0625
Gmin = 8.61953
vernier = 0.03125
vernier = 0.015625
vernier = 0.0078125
vernier = 0.00390625
Gmin = 8.47038
vernier = 0.00195313
vernier = 0.000976563
vernier = 0.000488281
Gmin = 0
Gmin stepping succeeded in finding the operating point.


Date: Sun Jul 05 23:52:24 2020
Total elapsed time: 1.771 seconds.

tnom = 27
temp = 27
method = modified trap
totiter = 22782
traniter = 21332
tranpoints = 10539
accept = 10403
rejected = 136
matrix size = 126
fillins = 754
solver = Normal
Thread vector: 13.2/8.5[3] 4.2/3.0[3] 7.6/3.1[3] 1.6/5.3[1]  2592/500
Matrix Compiler1: 81.02 KB object code size  15.5/8.1/[6.1]
Matrix Compiler2: 22.99 KB object code size  5.8/4.4/[2.5]

