LTspice 24.0.9 for Windows
Circuit: * Z:\home\ami\work\repos\amiduino\ltspice\Eload\Op-AmpDrivingNMos.asc
Start Time: Wed Dec 18 20:45:24 2024
solver = Normal
Maximum thread count: 16
tnom = 27
temp = 27
method = modified trap
Early termination of direct N-R iteration.
Direct Newton iteration failed to find .op point.  (Use ".option noopiter" to skip.)
Starting Gmin stepping
Gmin = 10
vernier = 0.5
vernier = 0.25
vernier = 0.125
vernier = 0.0625
Gmin = 8.61953
vernier = 0.03125
vernier = 0.015625
vernier = 0.0078125
vernier = 0.00390625
Gmin = 8.47038
vernier = 0.00195312
vernier = 0.000976562
vernier = 0.000488281
Gmin = 0
Gmin stepping succeeded in finding the operating point.

Total elapsed time: 1.010 seconds.

